Version 4
SHEET 1 2560 760
WIRE 1632 -144 1632 -176
WIRE 1632 -32 1632 -64
WIRE 1680 -32 1632 -32
WIRE 1856 -32 1680 -32
WIRE 1856 0 1856 -32
WIRE 1680 16 1680 -32
WIRE 1600 64 1456 64
WIRE 1456 80 1456 64
WIRE 1456 80 1440 80
WIRE 1856 96 1856 80
WIRE 1296 144 1216 144
WIRE 1440 144 1440 80
WIRE 1440 144 1376 144
WIRE 1856 160 1632 160
WIRE 1632 192 1632 160
WIRE 1632 192 1504 192
WIRE 1680 192 1680 112
WIRE 1680 192 1632 192
WIRE 1792 192 1680 192
WIRE 1952 192 1872 192
WIRE 2160 192 1952 192
WIRE 2160 240 2160 192
WIRE 1952 256 1952 192
WIRE 1632 272 1632 192
WIRE 1216 288 1216 144
WIRE 1504 288 1504 192
WIRE 1504 288 1216 288
WIRE 1632 384 1632 336
WIRE 1952 384 1952 320
WIRE 1952 384 1632 384
WIRE 2160 384 2160 320
WIRE 2160 384 1952 384
FLAG 1632 -176 0
FLAG 1952 384 0
SYMBOL voltage 1632 -48 R180
WINDOW 0 24 96 Left 2
WINDOW 3 24 16 Left 2
WINDOW 123 0 0 Left 0
WINDOW 39 0 0 Left 0
SYMATTR InstName V2
SYMATTR Value 311
SYMBOL voltage 1392 144 R90
WINDOW 123 0 0 Left 0
WINDOW 39 0 0 Left 0
SYMATTR InstName PWM
SYMATTR Value PULSE(0 12 1n 1n 1n 100u 200u)
SYMBOL diode 1648 336 R180
WINDOW 0 24 64 Left 2
WINDOW 3 24 0 Left 2
SYMATTR InstName D1
SYMATTR Value KD2997A
SYMBOL ind 1776 208 R270
WINDOW 0 32 56 VTop 2
WINDOW 3 5 56 VBottom 2
SYMATTR InstName L1
SYMATTR Value 1m
SYMATTR SpiceLine Rser=1m
SYMBOL cap 1936 256 R0
SYMATTR InstName C1
SYMATTR Value 150µ
SYMBOL res 2144 224 R0
SYMATTR InstName R1
SYMATTR Value 10
SYMBOL res 1840 -16 R0
SYMATTR InstName R2
SYMATTR Value 31
SYMBOL cap 1840 96 R0
SYMATTR InstName C2
SYMATTR Value 230n
SYMATTR SpiceLine V=25 Irms=0 Rser=0 Lser=0 mfg="Murata" pn="GRM0335C1E101JA01" type="C0G"
SYMBOL ZZZ\\MOS\\IRF\\NMOSFET\\irfp460 1648 64 R0
SYMATTR InstName U1
TEXT 1200 -16 Left 2 !.tran 0 4m 1u
